ligand
 PCMODEL  v9.1   1.00000     0.00000

 48 49  0  0  0  0              1 V2000
    6.2497    9.0201    9.7057 S   0  0  0  0  0  0 
    6.6526   10.6584    9.0182 C   0  0  0  0  0  0 
    6.2447   11.7466   10.0116 C   0  0  0  0  0  0 
    6.6175   13.1330    9.4663 C   0  0  0  0  0  0 
    6.3367   14.2827   10.3363 N   0  0  0  0  0  0 
    4.9137   14.4457   10.6215 C   0  0  0  0  0  0 
    7.1166   14.2621   11.5719 C   0  0  0  0  0  0 
    6.8012    7.9753    8.3578 C   0  0  0  0  0  0 
    8.1363    7.8469    7.9258 C   0  0  0  0  0  0 
    9.2223    8.5017    8.5459 N   0  0  0  0  0  0 
    9.6273    8.2026    9.8341 C   0  0  0  0  0  0 
    9.0796    7.4333   10.6086 O   0  0  0  0  0  0 
   10.8945    8.8977   10.1790 C   0  0  0  0  0  0 
   11.2195    9.4081   11.3790 C   0  0  0  0  0  0 
   10.4428    9.5075   12.6281 C   0  0  0  0  0  0 
   11.1065    9.3470   13.8521 C   0  0  0  0  0  0 
   10.4193    9.4904   15.0606 C   0  0  0  0  0  0 
    9.0628    9.8066   15.0583 C   0  0  0  0  0  0 
    8.3956    9.9830   13.8488 C   0  0  0  0  0  0 
    9.0848    9.8421   12.6414 C   0  0  0  0  0  0 
    8.4332    7.0773    6.7920 C   0  0  0  0  0  0 
    7.4228    6.3951    6.1143 C   0  0  0  0  0  0 
    6.1077    6.4852    6.5585 C   0  0  0  0  0  0 
    5.7997    7.2709    7.6710 C   0  0  0  0  0  0 
    9.9089    8.9081    7.9260 H   0  0  0  0  0  0 
    6.1192   10.7899    8.0707 H   0  0  0  0  0  0 
    7.7261   10.7237    8.8205 H   0  0  0  0  0  0 
    5.1645   11.6934   10.1915 H   0  0  0  0  0  0 
    6.7499   11.5761   10.9688 H   0  0  0  0  0  0 
    6.1013   13.2896    8.5099 H   0  0  0  0  0  0 
    7.6867   13.1454    9.2168 H   0  0  0  0  0  0 
    4.3330   14.4806    9.6931 H   0  0  0  0  0  0 
    4.5147   13.6430   11.2509 H   0  0  0  0  0  0 
    4.7368   15.3967   11.1366 H   0  0  0  0  0  0 
    8.1849   14.1509   11.3555 H   0  0  0  0  0  0 
    6.8144   13.4571   12.2503 H   0  0  0  0  0  0 
    7.0038   15.2122   12.1062 H   0  0  0  0  0  0 
   11.6278    8.9500    9.3814 H   0  0  0  0  0  0 
   12.2169    9.8366   11.4701 H   0  0  0  0  0  0 
   12.1645    9.0970   13.8769 H   0  0  0  0  0  0 
   10.9429    9.3501   16.0024 H   0  0  0  0  0  0 
    8.5249    9.9101   15.9966 H   0  0  0  0  0  0 
    7.3355   10.2224   13.8390 H   0  0  0  0  0  0 
    8.5407    9.9862   11.7136 H   0  0  0  0  0  0 
    9.4579    6.9769    6.4440 H   0  0  0  0  0  0 
    7.6637    5.7846    5.2478 H   0  0  0  0  0  0 
    5.3179    5.9470    6.0402 H   0  0  0  0  0  0 
    4.7628    7.3371    7.9946 H   0  0  0  0  0  0 
  1  2  1  0
  1  8  1  0
  2  3  1  0
  2 26  1  0
  2 27  1  0
  3  4  1  0
  3 28  1  0
  3 29  1  0
  4  5  1  0
  4 30  1  0
  4 31  1  0
  5  6  1  0
  5  7  1  0
  6 32  1  0
  6 33  1  0
  6 34  1  0
  7 35  1  0
  7 36  1  0
  7 37  1  0
  8  9  2  0
  8 24  1  0
  9 10  1  0
  9 21  1  0
 10 11  1  0
 10 25  1  0
 11 12  2  0
 11 13  1  0
 13 14  2  0
 13 38  1  0
 14 15  1  0
 14 39  1  0
 15 16  1  0
 15 20  2  0
 16 17  2  0
 16 40  1  0
 17 18  1  0
 17 41  1  0
 18 19  2  0
 18 42  1  0
 19 20  1  0
 19 43  1  0
 20 44  1  0
 21 22  2  0
 21 45  1  0
 22 23  1  0
 22 46  1  0
 23 24  2  0
 23 47  1  0
 24 48  1  0
M  END
> <title>
ligand
> <MMFF94 energy>
44.293877

$$$$
